[General]
network = simpleNet
sim-time-limit = 10s

**.client.intReq = 1000      # Mean interval between requests
**.client.n = 10             # Total number of requests to send
**.server.processingTime = 1 # Average processing time (not used here directly)
